<routes>
    <vType id="car" accel="1.0" decel="4.5" sigma="0.5" length="5" maxSpeed="0.5" color="1,0,0"/>
    <vType id="bus" accel="0.8" decel="4.0" sigma="0.5" length="12" maxSpeed="0.4" color="0,0,1"/>
    <vType id="truck" accel="0.6" decel="3.5" sigma="0.5" length="8" maxSpeed="0.3" color="0,1,0"/>
    <route id="r1" edges="e1 e2"/>
    <route id="r2" edges="e3 e4"/>
    <!-- 5 xe đi từ n1 -> n3 và 5 xe đi từ n3 -> n1, đã sắp xếp theo depart tăng dần -->
    <vehicle id="veh0" type="car" route="r1" depart="0"/>
    <vehicle id="veh5" type="car" route="r2" depart="1"/>
    <vehicle id="veh1" type="car" route="r1" depart="2"/>
    <vehicle id="veh6" type="car" route="r2" depart="3"/>
    <vehicle id="veh2" type="car" route="r1" depart="4"/>
    <vehicle id="veh7" type="car" route="r2" depart="5"/>
    <vehicle id="veh3" type="car" route="r1" depart="6"/>
    <vehicle id="veh8" type="car" route="r2" depart="7"/>
    <vehicle id="veh4" type="car" route="r1" depart="8"/>
    <vehicle id="veh9" type="car" route="r2" depart="9"/>
    <!-- Thêm bus và truck để SUMO load vType tương ứng -->
    <vehicle id="veh_bus_init" type="bus" route="r1" depart="10"/>
    <vehicle id="veh_truck_init" type="truck" route="r2" depart="11"/>
</routes>
