<types/>
<tlLogics>
    <tlLogic id="n2" type="static" programID="0" offset="0">
        <phase duration="30" state="Gr"/>
        <phase duration="5" state="yr"/>
        <phase duration="30" state="rG"/>
        <phase duration="5" state="ry"/>
    </tlLogic>
</tlLogics>
